Version 4
SHEET 1 1400 692
WIRE 384 64 384 0
WIRE 720 128 640 128
WIRE 944 128 944 48
WIRE 720 176 720 128
WIRE 640 224 640 128
WIRE 384 240 384 144
WIRE 496 240 384 240
WIRE 592 240 496 240
WIRE 912 256 864 256
WIRE 944 256 944 208
WIRE 944 256 912 256
WIRE 1088 256 944 256
WIRE -80 272 -288 272
WIRE -48 272 -80 272
WIRE 80 272 32 272
WIRE 384 272 384 240
WIRE 384 272 272 272
WIRE 864 272 864 256
WIRE 944 304 944 256
WIRE 1088 304 1088 256
WIRE 496 320 496 240
WIRE 416 336 272 336
WIRE -16 368 -64 368
WIRE 80 368 -16 368
WIRE 640 368 640 320
WIRE 752 368 640 368
WIRE 416 400 416 336
WIRE -288 416 -288 272
WIRE -16 432 -16 368
WIRE 640 448 640 368
WIRE 944 480 944 384
WIRE 496 496 496 400
WIRE -288 544 -288 496
WIRE -96 544 -288 544
WIRE -16 544 -16 512
WIRE -16 544 -96 544
WIRE 416 560 416 480
WIRE -96 592 -96 544
WIRE 640 592 640 528
WIRE 752 592 640 592
WIRE 1088 592 1088 384
WIRE 1088 592 752 592
FLAG 944 480 vee
FLAG 944 48 vCC
FLAG 752 368 Vbar
IOPIN 752 368 Out
FLAG 384 0 vCC
FLAG 416 560 vee
FLAG 752 592 V100
IOPIN 752 592 Out
FLAG -64 368 DIGITAL-IN
IOPIN -64 368 In
FLAG -80 272 V5
IOPIN -80 272 In
FLAG 496 496 VSS
FLAG 720 176 VSS
FLAG 864 272 VSS
FLAG -96 592 0
FLAG 912 256 0
SYMBOL voltage 944 288 R0
SYMATTR InstName V4
SYMATTR Value 12
SYMBOL voltage 944 112 R0
SYMATTR InstName V5
SYMATTR Value 12
SYMATTR SpiceLine Rser=5
SYMBOL res 624 432 R0
SYMATTR InstName R1
SYMATTR Value 47k
SYMBOL pmos 592 320 M180
SYMATTR InstName M1
SYMATTR Value IRF9640
SYMBOL res 48 256 R90
WINDOW 0 0 56 VBottom 2
WINDOW 3 32 56 VTop 2
SYMATTR InstName R2
SYMATTR Value 220
SYMBOL res 400 384 R0
SYMATTR InstName R4
SYMATTR Value 220
SYMBOL res 368 48 R0
SYMATTR InstName R5
SYMATTR Value 5.1k
SYMBOL res 480 304 R0
SYMATTR InstName R3
SYMATTR Value 3.3k
SYMBOL 4N25A 176 336 R0
SYMATTR InstName U1
SYMBOL voltage -16 416 R0
SYMATTR InstName V1
SYMATTR Value PULSE(0 5 0 1n 1n 1m 10m 2)
SYMBOL voltage -288 400 R0
SYMATTR InstName V2
SYMATTR Value 5
SYMBOL voltage 1088 288 R0
SYMATTR InstName V3
SYMATTR Value 100
TEXT 16 560 Left 2 !.tran 18m
TEXT -280 136 Left 2 ;DIGITAL-IN\n0 - Bar voltage = GND\n1 - Bar voltage = -100V
