Version 4
SHEET 1 1096 680
WIRE 672 -1104 480 -1104
WIRE 480 -1072 480 -1104
WIRE 352 -1040 192 -1040
WIRE 784 -1008 528 -1008
WIRE 352 -976 304 -976
WIRE -912 -960 -1008 -960
WIRE -864 -960 -912 -960
WIRE -544 -944 -768 -944
WIRE -912 -928 -912 -960
WIRE -864 -928 -912 -928
WIRE -144 -928 -448 -928
WIRE -544 -912 -608 -912
WIRE 304 -912 304 -976
WIRE 304 -912 -64 -912
WIRE -144 -896 -224 -896
WIRE 672 -880 672 -1104
WIRE 672 -880 480 -880
WIRE 736 -880 672 -880
WIRE 480 -848 480 -880
WIRE 192 -816 192 -1040
WIRE 352 -816 192 -816
WIRE -1008 -784 -1008 -960
WIRE -544 -784 -1008 -784
WIRE 784 -784 528 -784
WIRE -144 -768 -448 -768
WIRE -608 -752 -608 -912
WIRE -544 -752 -608 -752
WIRE 352 -752 -64 -752
WIRE -224 -736 -224 -896
WIRE -144 -736 -224 -736
WIRE 672 -656 624 -656
WIRE -1008 -640 -1008 -784
WIRE 624 -608 624 -656
WIRE 192 -560 192 -816
WIRE 352 -560 192 -560
WIRE 672 -544 672 -656
WIRE 192 -512 192 -560
WIRE -1008 -480 -1008 -560
WIRE -256 -464 -400 -464
WIRE -224 -464 -224 -736
WIRE -224 -464 -256 -464
WIRE -176 -464 -224 -464
WIRE -544 -448 -544 -752
WIRE -400 -416 -400 -464
WIRE 672 -416 672 -464
WIRE 672 -416 528 -416
WIRE 736 -416 736 -880
WIRE 736 -416 672 -416
WIRE 528 -384 528 -416
WIRE 192 -368 192 -432
WIRE 352 -352 352 -560
WIRE 400 -352 352 -352
WIRE 816 -320 576 -320
WIRE -560 -304 -560 -352
WIRE -528 -304 -528 -352
WIRE -528 -304 -560 -304
WIRE 400 -288 48 -288
WIRE -400 -272 -400 -336
WIRE -256 -192 -304 -192
WIRE -128 -192 -256 -192
WIRE 672 -192 672 -416
WIRE 672 -192 528 -192
WIRE 48 -176 48 -288
WIRE 48 -176 -48 -176
WIRE -176 -160 -176 -464
WIRE -128 -160 -176 -160
WIRE 352 -160 352 -352
WIRE 400 -160 352 -160
WIRE -576 -144 -656 -144
WIRE -528 -144 -528 -304
WIRE -528 -144 -576 -144
WIRE 816 -128 576 -128
WIRE -656 -96 -656 -144
WIRE 400 -96 48 -96
WIRE -128 -32 -256 -32
WIRE 48 -16 48 -96
WIRE 48 -16 -48 -16
WIRE 672 -16 672 -192
WIRE 672 -16 528 -16
WIRE -176 0 -176 -160
WIRE -128 0 -176 0
WIRE 528 0 528 -16
WIRE -656 32 -656 -16
WIRE 352 32 352 -160
WIRE 400 32 352 32
WIRE 816 64 576 64
WIRE 400 96 48 96
WIRE -128 128 -208 128
WIRE -304 144 -304 -192
WIRE -304 144 -320 144
WIRE 48 144 48 96
WIRE 48 144 -48 144
WIRE -528 160 -528 -144
WIRE -448 160 -528 160
WIRE -176 160 -176 0
WIRE -128 160 -176 160
WIRE -256 192 -256 -32
WIRE -256 192 -320 192
WIRE 672 192 672 -16
WIRE 672 192 528 192
WIRE 352 224 352 32
WIRE 400 224 352 224
WIRE -256 240 -320 240
WIRE -208 240 -208 128
WIRE -208 240 -256 240
WIRE 816 256 576 256
WIRE -256 288 -320 288
WIRE -128 288 -256 288
WIRE 400 288 144 288
WIRE 144 304 144 288
WIRE 144 304 -48 304
WIRE -176 320 -176 160
WIRE -128 320 -176 320
WIRE -720 368 -720 320
WIRE -608 368 -608 320
FLAG -608 368 0
FLAG -720 368 0
FLAG -656 32 0
FLAG -448 208 A
FLAG -448 240 B
FLAG -608 240 B
FLAG -720 240 A
FLAG 192 -368 0
FLAG 624 -608 0
FLAG 816 256 H4
IOPIN 816 256 Out
FLAG 816 64 H3
IOPIN 816 64 Out
FLAG 816 -128 H2
IOPIN 816 -128 Out
FLAG 816 -320 H1
IOPIN 816 -320 Out
FLAG 528 -256 0
FLAG 528 -64 0
FLAG 528 128 0
FLAG 528 320 0
FLAG -400 -272 0
FLAG 352 224 VDD
FLAG -256 -464 Qpoint
FLAG -576 -144 Select
FLAG -256 288 Y0
FLAG -256 240 Y1
FLAG -256 -32 Y2
FLAG -256 -192 Y3
FLAG -96 352 0
FLAG -96 192 0
FLAG -96 32 0
FLAG -96 -128 0
FLAG -96 256 VDD
FLAG -96 96 VDD
FLAG -96 -64 VDD
FLAG -96 -224 VDD
FLAG 144 288 B0
FLAG -1008 -480 0
FLAG -1008 -640 C
FLAG -112 -704 0
FLAG -112 -800 VDD
FLAG -112 -864 0
FLAG -112 -960 VDD
FLAG 480 -720 0
FLAG 480 -944 0
FLAG 784 -784 V1p
IOPIN 784 -784 Out
FLAG 784 -1008 V2p
IOPIN 784 -1008 Out
FLAG -496 -816 VDD
FLAG -496 -720 0
FLAG -592 -400 VDD
FLAG -496 -400 0
FLAG -496 -976 VDD
FLAG -496 -880 0
FLAG -816 -992 VDD
FLAG -816 -896 0
SYMBOL voltage -608 224 R0
WINDOW 3 -157 179 Left 2
SYMATTR Value PULSE(0 5 0 1n 1n 1m 2m 8)
SYMATTR InstName V1
SYMBOL voltage -720 224 R0
WINDOW 3 -61 120 Left 2
SYMATTR Value PULSE(0 5 0 1n 1n .5m 1m 16)
SYMATTR InstName V2
SYMBOL voltage -656 -112 R0
WINDOW 3 -129 184 Left 2
SYMATTR Value PULSE(5 0 0 1n 1n 4m 8m 2)
SYMATTR InstName Select
SYMBOL 74LS139 -368 224 R0
SYMATTR InstName X1
SYMBOL voltage 192 -528 R0
SYMATTR InstName V3
SYMATTR Value 5
SYMBOL voltage 672 -560 R0
SYMATTR InstName V5
SYMATTR Value 100
SYMBOL selectorBarDriver 480 272 R0
SYMATTR InstName X6
SYMBOL selectorBarDriver 480 80 R0
SYMATTR InstName X7
SYMBOL selectorBarDriver 480 -112 R0
SYMATTR InstName X8
SYMBOL selectorBarDriver 480 -304 R0
SYMATTR InstName X9
SYMBOL voltage -400 -432 R0
SYMATTR InstName VQPOINT
SYMATTR Value PULSE(0 5 0 1n 1n 8m 16m 1)
SYMBOL AND -112 304 R0
SYMATTR InstName X2
SYMBOL AND -112 144 R0
SYMATTR InstName X3
SYMBOL AND -112 -16 R0
SYMATTR InstName X4
SYMBOL AND -112 -176 R0
SYMATTR InstName X5
SYMBOL voltage -1008 -656 R0
WINDOW 3 -157 179 Left 2
SYMATTR Value PULSE(0 5 0 1n 1n 1m 2m 8)
SYMATTR InstName V4
SYMBOL AND -128 -752 R0
SYMATTR InstName X10
SYMBOL AND -128 -912 R0
SYMATTR InstName X11
SYMBOL selectorBarDriver 432 -768 R0
SYMATTR InstName X12
SYMBOL selectorBarDriver 432 -992 R0
SYMATTR InstName X13
SYMBOL NAND -528 -768 R0
SYMATTR InstName X14
SYMBOL NAND -544 -368 R270
SYMATTR InstName X15
SYMBOL NAND -528 -928 R0
SYMATTR InstName X16
SYMBOL NAND -848 -944 R0
SYMATTR InstName X17
TEXT -312 384 Left 2 !.tran 16m
TEXT -200 -536 Left 2 ;Qpoint\n0 = ilde Qpoint. All outputs 0V\n1 = Select active.
TEXT -960 -248 Left 2 ;Select\n0 = Select bar based on address\n1 = De-select all; used for writing 0;\n all outputs -250V
TEXT -1184 200 Left 3 ;least significant two\n bits of address word\nA0,A1
TEXT -960 -744 Left 3 ;third least significant\nbit of address word. \nA2
